Version 4
SHEET 1 5268 716
WIRE -192 -400 -288 -400
WIRE -32 -400 -112 -400
WIRE 704 -352 672 -352
WIRE 816 -352 768 -352
WIRE 1056 -288 1056 -336
WIRE 672 -256 672 -352
WIRE 704 -256 672 -256
WIRE 816 -256 816 -352
WIRE 816 -256 784 -256
WIRE -240 -240 -304 -240
WIRE -128 -240 -160 -240
WIRE -96 -240 -128 -240
WIRE 32 -240 -16 -240
WIRE 432 -240 288 -240
WIRE 1344 -240 1344 -272
WIRE 368 -176 368 -192
WIRE 288 -160 288 -240
WIRE 336 -160 288 -160
WIRE 736 -160 736 -176
WIRE 1200 -160 1200 -176
WIRE 432 -144 432 -240
WIRE 432 -144 400 -144
WIRE 464 -144 432 -144
WIRE 560 -144 528 -144
WIRE 672 -144 672 -256
WIRE 672 -144 640 -144
WIRE 704 -144 672 -144
WIRE 928 -144 928 -160
WIRE 1120 -144 1120 -176
WIRE 1168 -144 1120 -144
WIRE -128 -128 -128 -240
WIRE 336 -128 224 -128
WIRE 816 -128 816 -256
WIRE 816 -128 768 -128
WIRE 896 -128 816 -128
WIRE 1344 -128 1344 -160
WIRE 1344 -128 1248 -128
WIRE 1424 -128 1344 -128
WIRE 704 -112 672 -112
WIRE 1056 -112 1056 -208
WIRE 1056 -112 960 -112
WIRE 1168 -112 1056 -112
WIRE 368 -96 368 -112
WIRE 896 -96 864 -96
WIRE 1056 -96 1056 -112
WIRE 736 -80 736 -96
WIRE 1200 -80 1200 -96
WIRE 928 -64 928 -80
WIRE 1216 -64 1216 -80
WIRE 1264 -64 1216 -64
WIRE 672 -48 672 -112
WIRE 224 0 224 -128
WIRE 864 0 864 -96
WIRE 1056 0 1056 -16
WIRE 1056 0 864 0
WIRE 1056 32 1056 0
WIRE 1056 128 1056 112
WIRE 224 160 224 80
WIRE 224 304 224 240
FLAG 368 -192 V+
FLAG 368 -96 V-
FLAG 736 -176 V+
FLAG 736 -80 V-
FLAG -128 -128 0
FLAG 32 -240 V+
FLAG -304 -240 V-
FLAG 672 -48 0
FLAG 928 -160 V+
FLAG 1056 128 0
FLAG 1056 -336 V+
FLAG 928 -64 V-
FLAG -32 -400 V_Tinah
FLAG 1200 -176 V+
FLAG 1200 -80 V-
FLAG 1120 -176 0
FLAG 1344 -272 V_Tinah
FLAG -288 -400 0
FLAG 1264 -64 0
FLAG 224 304 0
SYMBOL voltage 224 144 R0
WINDOW 123 0 0 Left 0
WINDOW 39 0 0 Left 0
SYMATTR InstName V1
SYMATTR Value SINE(4 40m 1k)
SYMBOL bv 224 -16 R0
SYMATTR InstName B1
SYMATTR Value V=white(1e7*time)/10
SYMBOL Opamps\\opamp2 368 -208 R0
SYMATTR InstName U1
SYMATTR Value TL082
SYMBOL Opamps\\opamp2 736 -192 R0
SYMATTR InstName U2
SYMATTR Value TL082
SYMBOL cap 528 -160 R90
WINDOW 0 0 32 VBottom 2
WINDOW 3 32 32 VTop 2
SYMATTR InstName C1
SYMATTR Value 470n
SYMBOL res 656 -160 R90
WINDOW 0 0 56 VBottom 2
WINDOW 3 32 56 VTop 2
SYMATTR InstName R1
SYMATTR Value 1k
SYMBOL res 800 -272 R90
WINDOW 0 0 56 VBottom 2
WINDOW 3 32 56 VTop 2
SYMATTR InstName R2
SYMATTR Value 47k
SYMBOL cap 768 -368 R90
WINDOW 0 0 32 VBottom 2
WINDOW 3 32 32 VTop 2
SYMATTR InstName C2
SYMATTR Value 100p
SYMBOL voltage 0 -240 R90
WINDOW 0 -32 56 VBottom 2
WINDOW 3 32 56 VTop 2
WINDOW 123 0 0 Left 0
WINDOW 39 0 0 Left 0
SYMATTR InstName V2
SYMATTR Value 9
SYMBOL voltage -144 -240 R90
WINDOW 0 -32 56 VBottom 2
WINDOW 3 32 56 VTop 2
WINDOW 123 0 0 Left 0
WINDOW 39 0 0 Left 0
SYMATTR InstName V3
SYMATTR Value 9
SYMBOL Opamps\\opamp2 928 -176 R0
SYMATTR InstName U3
SYMATTR Value LM393
SYMBOL res 1040 16 R0
SYMATTR InstName R4
SYMATTR Value 6k
SYMBOL res 1040 -304 R0
SYMATTR InstName R3
SYMATTR Value 47k
SYMBOL res 1040 -112 R0
SYMATTR InstName R5
SYMATTR Value 47k
SYMBOL voltage -96 -400 R90
WINDOW 0 -32 56 VBottom 2
WINDOW 3 32 56 VTop 2
WINDOW 123 0 0 Left 0
WINDOW 39 0 0 Left 0
SYMATTR InstName V4
SYMATTR Value 5
SYMBOL Comparators\\LM311 1200 -128 R0
WINDOW 3 35 31 Left 2
SYMATTR InstName U4
SYMATTR Value LM311
SYMBOL res 1328 -256 R0
SYMATTR InstName R6
SYMATTR Value 47k
TEXT -920 136 Left 2 !.tran 30m
TEXT -2320 -792 Left 0 !* TL082 OPERATIONAL AMPLIFIER "MACROMODEL" SUBCIRCUIT\n* CREATED USING PARTS RELEASE 4.01 ON 06/16/89 AT 13:08\n* (REV N/A)      SUPPLY VOLTAGE: +/-15V\n* CONNECTIONS:   NON-INVERTING INPUT\n*                | INVERTING INPUT\n*                | | POSITIVE POWER SUPPLY\n*                | | | NEGATIVE POWER SUPPLY\n*                | | | | OUTPUT\n*                | | | | |\n.SUBCKT TL082    1 2 3 4 5\n*\n  C1   11 12 3.498E-12\n  C2    6  7 15.00E-12\n  DC    5 53 DX\n  DE   54  5 DX\n  DLP  90 91 DX\n  DLN  92 90 DX\n  DP    4  3 DX\n  EGND 99  0 POLY(2) (3,0) (4,0) 0 .5 .5\n  FB    7 99 POLY(5) VB VC VE VLP VLN 0 4.715E6 -5E6 5E6 5E6 -5E6\n  GA    6  0 11 12 282.8E-6\n  GCM   0  6 10 99 8.942E-9\n  ISS   3 10 DC 195.0E-6\n  HLIM 90  0 VLIM 1K\n  J1   11  2 10 JX\n  J2   12  1 10 JX\n  R2    6  9 100.0E3\n  RD1   4 11 3.536E3\n  RD2   4 12 3.536E3\n  RO1   8  5 150\n  RO2   7 99 150\n  RP    3  4 2.143E3\n  RSS  10 99 1.026E6\n  VB    9  0 DC 0\n  VC    3 53 DC 2.200\n  VE   54  4 DC 2.200\n  VLIM  7  8 DC 0\n  VLP  91  0 DC 25\n  VLN   0 92 DC 25\n.MODEL DX D(IS=800.0E-18)\n.MODEL JX PJF(IS=15.00E-12 BETA=270.1E-6 VTO=-1)\n.ENDS\n
TEXT -2016 -792 Left 0 !* LM393 VOLTAGE COMPARATOR "MACROMODEL" SUBCIRCUIT\n* CREATED USING PARTS VERSION 4.03 ON 03/07/90 AT 14:17\n* REV (N/A)\n* CONNECTIONS:   NON-INVERTING INPUT\n*                | INVERTING INPUT\n*                | | POSITIVE POWER SUPPLY\n*                | | | NEGATIVE POWER SUPPLY\n*                | | | | OPEN COLLECTOR OUTPUT\n*                | | | | |\n.SUBCKT LM393    1 2 3 4 5\n*\n  F1    9  3 V1 1\n  IEE   3  7 DC 100.0E-6\n  VI1  21  1 DC .75\n  VI2  22  2 DC .75\n  Q1    9 21  7 QIN\n  Q2    8 22  7 QIN\n  Q3    9  8  4 QMO\n  Q4    8  8  4 QMI\n.MODEL QIN PNP(IS=800.0E-18 BF=2.000E3)\n.MODEL QMI NPN(IS=800.0E-18 BF=1002)\n.MODEL QMO NPN(IS=800.0E-18 BF=1000 CJC=1E-15 TR=807.4E-9)\n  E1   10  4  9  4  1\n  V1   10 11 DC 0\n  Q5    5 11  4 QOC\n.MODEL QOC NPN(IS=800.0E-18 BF=20.29E3 CJC=1E-15 TF=942.6E-12 TR=543.8E-9)\n  DP    4  3 DX\n  RP 3  4 46.3E3\n.MODEL DX  D(IS=800.0E-18)\n*\n.ENDS
TEXT -1656 -792 Left 0 !* LM311 VOLTAGE COMPARATOR "MACROMODEL" SUBCIRCUIT\n* CREATED USING PARTS VERSION 4.03 ON 03/07/90 AT 08:15\n* REV (N/A)\n* CONNECTIONS:   NON-INVERTING INPUT\n*                | INVERTING INPUT\n*                | | POSITIVE POWER SUPPLY\n*                | | | NEGATIVE POWER SUPPLY\n*                | | | | OPEN COLLECTOR OUTPUT\n*                | | | | | OUTPUT GROUND\n*                | | | | | |\n.SUBCKT LM311    1 2 3 4 5 6\n*\n  F1    9  3 V1 1\n  IEE   3  7 DC 100.0E-6\n  VI1  21  1 DC .45\n  VI2  22  2 DC .45\n  Q1    9 21  7 QIN\n  Q2    8 22  7 QIN\n  Q3    9  8  4 QMO\n  Q4    8  8  4 QMI\n.MODEL QIN PNP(IS=800.0E-18 BF=500)\n.MODEL QMI NPN(IS=800.0E-18 BF=1002)\n.MODEL QMO NPN(IS=800.0E-18 BF=1000 CJC=1E-15 TR=102.5E-9)\n  E1   10  6  9  4  1\n  V1   10 11 DC 0\n  Q5    5 11  6 QOC\n.MODEL QOC NPN(IS=800.0E-18 BF=103.5E3 CJC=1E-15 TF=11.60E-12 TR=48.19E-9)\n  DP    4  3 DX\n  RP    3  4 6.667E3\n.MODEL DX  D(IS=800.0E-18)\n*\n.ENDS
